mtd/3phase_linearization/4Bus_sets/4Bus-GrdYD-Bal/4busYDBal_Power_elem_kVA.txt

CIRCUIT ELEMENT POWER FLOW

(Power Flow into element from indicated Bus)

Power Delivery Elements

  Bus     Phase     kW     +j   kvar         kVA         PF

ELEMENT = "Vsource.SOURCE"
SOURCEBUS     1     -1987.8 +j  -1363.2     2410.3       0.8247
SOURCEBUS     2     -1980.7 +j  -1380.3     2414.2       0.8204
SOURCEBUS     3     -1998.6 +j  -1380.3     2428.9       0.8228
   TERMINAL TOTAL . -5967.1 +j  -4123.8     7253.4       0.8227
SOURCEBUS     0         0.0 +j      0.0        0.0       1.0000
SOURCEBUS     0         0.0 +j      0.0        0.0       1.0000
SOURCEBUS     0         0.0 +j      0.0        0.0       1.0000
   TERMINAL TOTAL .     0.0 +j      0.0        0.0       1.0000

ELEMENT = "Line.LINE1"
SOURCEBUS     1      1987.8 +j   1363.2     2410.3       0.8247
SOURCEBUS     2      1980.7 +j   1380.3     2414.2       0.8204
SOURCEBUS     3      1998.6 +j   1380.3     2428.9       0.8228
   TERMINAL TOTAL .  5967.1 +j   4123.8     7253.4       0.8227
N2            1     -1970.9 +j  -1336.5     2381.4       0.8276
N2            2     -1970.1 +j  -1355.8     2391.6       0.8238
N2            3     -1986.8 +j  -1351.6     2402.9       0.8268
   TERMINAL TOTAL . -5927.8 +j  -4043.9     7175.8       0.8261

ELEMENT = "Transformer.T1"
N2            1      1970.9 +j   1336.5     2381.4       0.8276
N2            2      1970.1 +j   1355.8     2391.6       0.8238
N2            3      1986.8 +j   1351.6     2402.9       0.8268
N2            0         0.0 +j      0.0        0.0       1.0000
   TERMINAL TOTAL .  5927.8 +j   4043.9     7175.8       0.8261
N3            1     -2028.8 +j  -1085.4     2300.9       0.8817
N3            2     -1976.9 +j  -1290.4     2360.7       0.8374
N3            3     -1834.4 +j  -1141.9     2160.8       0.8490
N3            0         0.0 +j      0.0        0.0       1.0000
   TERMINAL TOTAL . -5840.1 +j  -3517.7     6817.7       0.8566

ELEMENT = "Line.LINE2"
N3            1      2028.8 +j   1085.4     2300.9       0.8817
N3            2      1976.9 +j   1290.4     2360.7       0.8374
N3            3      1834.4 +j   1141.9     2160.8       0.8490
   TERMINAL TOTAL .  5840.1 +j   3517.7     6817.7       0.8566
N4            1     -1835.1 +j   -781.9     1994.7       0.9200
N4            2     -1860.7 +j  -1010.3     2117.3       0.8788
N4            3     -1703.7 +j   -822.7     1891.9       0.9005
   TERMINAL TOTAL . -5399.5 +j  -2615.0     5999.4       0.9000

= = = = = = = = = = = = = = = = = = =  = = = = = = = = = = =  = =

Power Conversion Elements

  Bus     Phase     kW   +j  kvar         kVA         PF

ELEMENT = "Load.LOAD1"
N4            1    1835.2 +j  781.9     1994.8       0.9200
N4            2    1860.8 +j 1010.3     2117.4       0.8788
N4            3    1703.8 +j  822.7     1892.0       0.9005
  TERMINAL TOTAL  .  5399.8 +j   2615.0     5999.6       0.9000


Total Circuit Losses =  567.6 +j 1508.8
